[General]
network = VoIPNetwork
repeat = 8
sim-time-limit = 250s
**.networkConfiguratorModule = ""

# Measure
**.ppp[*].numInputHooks = 1 
**.ppp[*].inputHook[0].typename = "ThruputMeter" 
**.vector-recording = false

# Server settings
**.httpServer.numTcpApps = 1
**.httpServer.tcpApp[0].typename = "TCPGenericSrvApp"
**.httpServer.tcpApp[0].localPort = 80
**.httpServer.tcpApp[0].replyDelay = 0

# TCP settings
**.tcpType = "TCP" 
**.tcp.advertisedWindow = 22*this.mss 
**.tcp.mss = 1000

# Router
**.ppp[*].queueType = "DropTailQueue"
**.ppp[*].queue.frameCapacity = 40

[Config NoVoIP]
# Client settings
**.user[*].numTcpApps = 1 
**.user[*].tcpApp[0].typename = "TCPBasicClientApp"  
**.user[*].tcpApp[0].connectAddress = "httpServer" 
**.user[*].tcpApp[0].connectPort = 80 
#**.user[*].tcpApp[0].numRequestsPerSession = exponential(5) # HTTP 1.1, with keepalive  1# HTTP 1.0
#**.user[*].tcpApp[0].requestLength = truncnormal(350,20)
**.user[*].tcpApp[0].replyLength = exponential(150000B)
**.user[*].tcpApp[0].idleInterval = exponential(30s)
**.user[*].tcpApp[0].thinkTime = 0
**.user[*].tcpApp[0].dataTransferMode = "object"

[Config ISDN_Best]
**.datarate1 = 64 kbps

**.user[0..24].numUdpApps = 1
**.user[0..24].udpApp[0].typename = "VoIPApp"  
**.user[0..24].udpApp[0].destAddresses = "user[0] user[1] user[2] user[3] user[4] user[5] user[6] user[7] user[8] user[9] user[10] user[11] user[12] user[13] user[14] user[15] user[16] user[17] user[18] user[19] user[20] user[21] user[22] user[23] user[24]" 
**.user[0..24].udpApp[0].destPort = 5000
**.user[0..24].udpApp[0].localPort = 5000
**.user[0..24].udpApp[0].messageLength = 32B + 40B #Data: 32B, Header: 40B = 20B(IP) + 8B(UDP) + 12B(RTP)
**.user[0..24].udpApp[0].sendInterval = 20ms # 1000ms / 20ms = 50 packets per second.
**.user[0..24].udpApp[0].acceptableDelay = 200ms 

**.user[25..624].numTcpApps = 1 
**.user[25..624].tcpApp[0].typename = "TCPBasicClientApp"  
**.user[25..624].tcpApp[0].connectAddress = "httpServer" 
**.user[25..624].tcpApp[0].connectPort = 80 
**.user[25..624].tcpApp[0].replyLength = exponential(150000B)
**.user[25..624].tcpApp[0].idleInterval = exponential(30s)
**.user[25..624].tcpApp[0].thinkTime = 0
**.user[25..624].tcpApp[0].dataTransferMode = "object"

[Config ISDN_Worst]
**.datarate1 = 64 kbps

**.user[0].numUdpApps = 1
**.user[0].udpApp[0].typename = "VoIPApp"
**.user[0].udpApp[0].destPort = 5000
**.user[0].udpApp[0].localPort = 5000
**.user[0].udpApp[0].messageLength = 32B + 40B
**.user[0].udpApp[0].sendInterval = 20ms
**.user[0].udpApp[0].acceptableDelay = 200ms
**.user[0].udpApp[0].destAddresses = "user[0] user[25] user[50] user[75] user[100] user[125] user[150] user[175] user[200] user[225] user[250] user[275] user[300] user[325] user[350] user[375] user[400] user[425] user[450] user[475] user[500] user[525] user[550] user[575] user[600] "
**.user[25].numUdpApps = 1
**.user[25].udpApp[0].typename = "VoIPApp"
**.user[25].udpApp[0].destPort = 5000
**.user[25].udpApp[0].localPort = 5000
**.user[25].udpApp[0].messageLength = 32B + 40B
**.user[25].udpApp[0].sendInterval = 20ms
**.user[25].udpApp[0].acceptableDelay = 200ms
**.user[25].udpApp[0].destAddresses = "user[0] user[25] user[50] user[75] user[100] user[125] user[150] user[175] user[200] user[225] user[250] user[275] user[300] user[325] user[350] user[375] user[400] user[425] user[450] user[475] user[500] user[525] user[550] user[575] user[600] "
**.user[50].numUdpApps = 1
**.user[50].udpApp[0].typename = "VoIPApp"
**.user[50].udpApp[0].destPort = 5000
**.user[50].udpApp[0].localPort = 5000
**.user[50].udpApp[0].messageLength = 32B + 40B
**.user[50].udpApp[0].sendInterval = 20ms
**.user[50].udpApp[0].acceptableDelay = 200ms
**.user[50].udpApp[0].destAddresses = "user[0] user[25] user[50] user[75] user[100] user[125] user[150] user[175] user[200] user[225] user[250] user[275] user[300] user[325] user[350] user[375] user[400] user[425] user[450] user[475] user[500] user[525] user[550] user[575] user[600] "
**.user[75].numUdpApps = 1
**.user[75].udpApp[0].typename = "VoIPApp"
**.user[75].udpApp[0].destPort = 5000
**.user[75].udpApp[0].localPort = 5000
**.user[75].udpApp[0].messageLength = 32B + 40B
**.user[75].udpApp[0].sendInterval = 20ms
**.user[75].udpApp[0].acceptableDelay = 200ms
**.user[75].udpApp[0].destAddresses = "user[0] user[25] user[50] user[75] user[100] user[125] user[150] user[175] user[200] user[225] user[250] user[275] user[300] user[325] user[350] user[375] user[400] user[425] user[450] user[475] user[500] user[525] user[550] user[575] user[600] "
**.user[100].numUdpApps = 1
**.user[100].udpApp[0].typename = "VoIPApp"
**.user[100].udpApp[0].destPort = 5000
**.user[100].udpApp[0].localPort = 5000
**.user[100].udpApp[0].messageLength = 32B + 40B
**.user[100].udpApp[0].sendInterval = 20ms
**.user[100].udpApp[0].acceptableDelay = 200ms
**.user[100].udpApp[0].destAddresses = "user[0] user[25] user[50] user[75] user[100] user[125] user[150] user[175] user[200] user[225] user[250] user[275] user[300] user[325] user[350] user[375] user[400] user[425] user[450] user[475] user[500] user[525] user[550] user[575] user[600] "
**.user[125].numUdpApps = 1
**.user[125].udpApp[0].typename = "VoIPApp"
**.user[125].udpApp[0].destPort = 5000
**.user[125].udpApp[0].localPort = 5000
**.user[125].udpApp[0].messageLength = 32B + 40B
**.user[125].udpApp[0].sendInterval = 20ms
**.user[125].udpApp[0].acceptableDelay = 200ms
**.user[125].udpApp[0].destAddresses = "user[0] user[25] user[50] user[75] user[100] user[125] user[150] user[175] user[200] user[225] user[250] user[275] user[300] user[325] user[350] user[375] user[400] user[425] user[450] user[475] user[500] user[525] user[550] user[575] user[600] "
**.user[150].numUdpApps = 1
**.user[150].udpApp[0].typename = "VoIPApp"
**.user[150].udpApp[0].destPort = 5000
**.user[150].udpApp[0].localPort = 5000
**.user[150].udpApp[0].messageLength = 32B + 40B
**.user[150].udpApp[0].sendInterval = 20ms
**.user[150].udpApp[0].acceptableDelay = 200ms
**.user[150].udpApp[0].destAddresses = "user[0] user[25] user[50] user[75] user[100] user[125] user[150] user[175] user[200] user[225] user[250] user[275] user[300] user[325] user[350] user[375] user[400] user[425] user[450] user[475] user[500] user[525] user[550] user[575] user[600] "
**.user[175].numUdpApps = 1
**.user[175].udpApp[0].typename = "VoIPApp"
**.user[175].udpApp[0].destPort = 5000
**.user[175].udpApp[0].localPort = 5000
**.user[175].udpApp[0].messageLength = 32B + 40B
**.user[175].udpApp[0].sendInterval = 20ms
**.user[175].udpApp[0].acceptableDelay = 200ms
**.user[175].udpApp[0].destAddresses = "user[0] user[25] user[50] user[75] user[100] user[125] user[150] user[175] user[200] user[225] user[250] user[275] user[300] user[325] user[350] user[375] user[400] user[425] user[450] user[475] user[500] user[525] user[550] user[575] user[600] "
**.user[200].numUdpApps = 1
**.user[200].udpApp[0].typename = "VoIPApp"
**.user[200].udpApp[0].destPort = 5000
**.user[200].udpApp[0].localPort = 5000
**.user[200].udpApp[0].messageLength = 32B + 40B
**.user[200].udpApp[0].sendInterval = 20ms
**.user[200].udpApp[0].acceptableDelay = 200ms
**.user[200].udpApp[0].destAddresses = "user[0] user[25] user[50] user[75] user[100] user[125] user[150] user[175] user[200] user[225] user[250] user[275] user[300] user[325] user[350] user[375] user[400] user[425] user[450] user[475] user[500] user[525] user[550] user[575] user[600] "
**.user[225].numUdpApps = 1
**.user[225].udpApp[0].typename = "VoIPApp"
**.user[225].udpApp[0].destPort = 5000
**.user[225].udpApp[0].localPort = 5000
**.user[225].udpApp[0].messageLength = 32B + 40B
**.user[225].udpApp[0].sendInterval = 20ms
**.user[225].udpApp[0].acceptableDelay = 200ms
**.user[225].udpApp[0].destAddresses = "user[0] user[25] user[50] user[75] user[100] user[125] user[150] user[175] user[200] user[225] user[250] user[275] user[300] user[325] user[350] user[375] user[400] user[425] user[450] user[475] user[500] user[525] user[550] user[575] user[600] "
**.user[250].numUdpApps = 1
**.user[250].udpApp[0].typename = "VoIPApp"
**.user[250].udpApp[0].destPort = 5000
**.user[250].udpApp[0].localPort = 5000
**.user[250].udpApp[0].messageLength = 32B + 40B
**.user[250].udpApp[0].sendInterval = 20ms
**.user[250].udpApp[0].acceptableDelay = 200ms
**.user[250].udpApp[0].destAddresses = "user[0] user[25] user[50] user[75] user[100] user[125] user[150] user[175] user[200] user[225] user[250] user[275] user[300] user[325] user[350] user[375] user[400] user[425] user[450] user[475] user[500] user[525] user[550] user[575] user[600] "
**.user[275].numUdpApps = 1
**.user[275].udpApp[0].typename = "VoIPApp"
**.user[275].udpApp[0].destPort = 5000
**.user[275].udpApp[0].localPort = 5000
**.user[275].udpApp[0].messageLength = 32B + 40B
**.user[275].udpApp[0].sendInterval = 20ms
**.user[275].udpApp[0].acceptableDelay = 200ms
**.user[275].udpApp[0].destAddresses = "user[0] user[25] user[50] user[75] user[100] user[125] user[150] user[175] user[200] user[225] user[250] user[275] user[300] user[325] user[350] user[375] user[400] user[425] user[450] user[475] user[500] user[525] user[550] user[575] user[600] "
**.user[300].numUdpApps = 1
**.user[300].udpApp[0].typename = "VoIPApp"
**.user[300].udpApp[0].destPort = 5000
**.user[300].udpApp[0].localPort = 5000
**.user[300].udpApp[0].messageLength = 32B + 40B
**.user[300].udpApp[0].sendInterval = 20ms
**.user[300].udpApp[0].acceptableDelay = 200ms
**.user[300].udpApp[0].destAddresses = "user[0] user[25] user[50] user[75] user[100] user[125] user[150] user[175] user[200] user[225] user[250] user[275] user[300] user[325] user[350] user[375] user[400] user[425] user[450] user[475] user[500] user[525] user[550] user[575] user[600] "
**.user[325].numUdpApps = 1
**.user[325].udpApp[0].typename = "VoIPApp"
**.user[325].udpApp[0].destPort = 5000
**.user[325].udpApp[0].localPort = 5000
**.user[325].udpApp[0].messageLength = 32B + 40B
**.user[325].udpApp[0].sendInterval = 20ms
**.user[325].udpApp[0].acceptableDelay = 200ms
**.user[325].udpApp[0].destAddresses = "user[0] user[25] user[50] user[75] user[100] user[125] user[150] user[175] user[200] user[225] user[250] user[275] user[300] user[325] user[350] user[375] user[400] user[425] user[450] user[475] user[500] user[525] user[550] user[575] user[600] "
**.user[350].numUdpApps = 1
**.user[350].udpApp[0].typename = "VoIPApp"
**.user[350].udpApp[0].destPort = 5000
**.user[350].udpApp[0].localPort = 5000
**.user[350].udpApp[0].messageLength = 32B + 40B
**.user[350].udpApp[0].sendInterval = 20ms
**.user[350].udpApp[0].acceptableDelay = 200ms
**.user[350].udpApp[0].destAddresses = "user[0] user[25] user[50] user[75] user[100] user[125] user[150] user[175] user[200] user[225] user[250] user[275] user[300] user[325] user[350] user[375] user[400] user[425] user[450] user[475] user[500] user[525] user[550] user[575] user[600] "
**.user[375].numUdpApps = 1
**.user[375].udpApp[0].typename = "VoIPApp"
**.user[375].udpApp[0].destPort = 5000
**.user[375].udpApp[0].localPort = 5000
**.user[375].udpApp[0].messageLength = 32B + 40B
**.user[375].udpApp[0].sendInterval = 20ms
**.user[375].udpApp[0].acceptableDelay = 200ms
**.user[375].udpApp[0].destAddresses = "user[0] user[25] user[50] user[75] user[100] user[125] user[150] user[175] user[200] user[225] user[250] user[275] user[300] user[325] user[350] user[375] user[400] user[425] user[450] user[475] user[500] user[525] user[550] user[575] user[600] "
**.user[400].numUdpApps = 1
**.user[400].udpApp[0].typename = "VoIPApp"
**.user[400].udpApp[0].destPort = 5000
**.user[400].udpApp[0].localPort = 5000
**.user[400].udpApp[0].messageLength = 32B + 40B
**.user[400].udpApp[0].sendInterval = 20ms
**.user[400].udpApp[0].acceptableDelay = 200ms
**.user[400].udpApp[0].destAddresses = "user[0] user[25] user[50] user[75] user[100] user[125] user[150] user[175] user[200] user[225] user[250] user[275] user[300] user[325] user[350] user[375] user[400] user[425] user[450] user[475] user[500] user[525] user[550] user[575] user[600] "
**.user[425].numUdpApps = 1
**.user[425].udpApp[0].typename = "VoIPApp"
**.user[425].udpApp[0].destPort = 5000
**.user[425].udpApp[0].localPort = 5000
**.user[425].udpApp[0].messageLength = 32B + 40B
**.user[425].udpApp[0].sendInterval = 20ms
**.user[425].udpApp[0].acceptableDelay = 200ms
**.user[425].udpApp[0].destAddresses = "user[0] user[25] user[50] user[75] user[100] user[125] user[150] user[175] user[200] user[225] user[250] user[275] user[300] user[325] user[350] user[375] user[400] user[425] user[450] user[475] user[500] user[525] user[550] user[575] user[600] "
**.user[450].numUdpApps = 1
**.user[450].udpApp[0].typename = "VoIPApp"
**.user[450].udpApp[0].destPort = 5000
**.user[450].udpApp[0].localPort = 5000
**.user[450].udpApp[0].messageLength = 32B + 40B
**.user[450].udpApp[0].sendInterval = 20ms
**.user[450].udpApp[0].acceptableDelay = 200ms
**.user[450].udpApp[0].destAddresses = "user[0] user[25] user[50] user[75] user[100] user[125] user[150] user[175] user[200] user[225] user[250] user[275] user[300] user[325] user[350] user[375] user[400] user[425] user[450] user[475] user[500] user[525] user[550] user[575] user[600] "
**.user[475].numUdpApps = 1
**.user[475].udpApp[0].typename = "VoIPApp"
**.user[475].udpApp[0].destPort = 5000
**.user[475].udpApp[0].localPort = 5000
**.user[475].udpApp[0].messageLength = 32B + 40B
**.user[475].udpApp[0].sendInterval = 20ms
**.user[475].udpApp[0].acceptableDelay = 200ms
**.user[475].udpApp[0].destAddresses = "user[0] user[25] user[50] user[75] user[100] user[125] user[150] user[175] user[200] user[225] user[250] user[275] user[300] user[325] user[350] user[375] user[400] user[425] user[450] user[475] user[500] user[525] user[550] user[575] user[600] "
**.user[500].numUdpApps = 1
**.user[500].udpApp[0].typename = "VoIPApp"
**.user[500].udpApp[0].destPort = 5000
**.user[500].udpApp[0].localPort = 5000
**.user[500].udpApp[0].messageLength = 32B + 40B
**.user[500].udpApp[0].sendInterval = 20ms
**.user[500].udpApp[0].acceptableDelay = 200ms
**.user[500].udpApp[0].destAddresses = "user[0] user[25] user[50] user[75] user[100] user[125] user[150] user[175] user[200] user[225] user[250] user[275] user[300] user[325] user[350] user[375] user[400] user[425] user[450] user[475] user[500] user[525] user[550] user[575] user[600] "
**.user[525].numUdpApps = 1
**.user[525].udpApp[0].typename = "VoIPApp"
**.user[525].udpApp[0].destPort = 5000
**.user[525].udpApp[0].localPort = 5000
**.user[525].udpApp[0].messageLength = 32B + 40B
**.user[525].udpApp[0].sendInterval = 20ms
**.user[525].udpApp[0].acceptableDelay = 200ms
**.user[525].udpApp[0].destAddresses = "user[0] user[25] user[50] user[75] user[100] user[125] user[150] user[175] user[200] user[225] user[250] user[275] user[300] user[325] user[350] user[375] user[400] user[425] user[450] user[475] user[500] user[525] user[550] user[575] user[600] "
**.user[550].numUdpApps = 1
**.user[550].udpApp[0].typename = "VoIPApp"
**.user[550].udpApp[0].destPort = 5000
**.user[550].udpApp[0].localPort = 5000
**.user[550].udpApp[0].messageLength = 32B + 40B
**.user[550].udpApp[0].sendInterval = 20ms
**.user[550].udpApp[0].acceptableDelay = 200ms
**.user[550].udpApp[0].destAddresses = "user[0] user[25] user[50] user[75] user[100] user[125] user[150] user[175] user[200] user[225] user[250] user[275] user[300] user[325] user[350] user[375] user[400] user[425] user[450] user[475] user[500] user[525] user[550] user[575] user[600] "
**.user[575].numUdpApps = 1
**.user[575].udpApp[0].typename = "VoIPApp"
**.user[575].udpApp[0].destPort = 5000
**.user[575].udpApp[0].localPort = 5000
**.user[575].udpApp[0].messageLength = 32B + 40B
**.user[575].udpApp[0].sendInterval = 20ms
**.user[575].udpApp[0].acceptableDelay = 200ms
**.user[575].udpApp[0].destAddresses = "user[0] user[25] user[50] user[75] user[100] user[125] user[150] user[175] user[200] user[225] user[250] user[275] user[300] user[325] user[350] user[375] user[400] user[425] user[450] user[475] user[500] user[525] user[550] user[575] user[600] "
**.user[600].numUdpApps = 1
**.user[600].udpApp[0].typename = "VoIPApp"
**.user[600].udpApp[0].destPort = 5000
**.user[600].udpApp[0].localPort = 5000
**.user[600].udpApp[0].messageLength = 32B + 40B
**.user[600].udpApp[0].sendInterval = 20ms
**.user[600].udpApp[0].acceptableDelay = 200ms
**.user[600].udpApp[0].destAddresses = "user[0] user[25] user[50] user[75] user[100] user[125] user[150] user[175] user[200] user[225] user[250] user[275] user[300] user[325] user[350] user[375] user[400] user[425] user[450] user[475] user[500] user[525] user[550] user[575] user[600] "

**.user[1..24].numTcpApps = 1
**.user[1..24].tcpApp[0].typename = "TCPBasicClientApp"
**.user[1..24].tcpApp[0].connectAddress = "httpServer"
**.user[1..24].tcpApp[0].connectPort = 80
**.user[1..24].tcpApp[0].replyLength = exponential(150000B)
**.user[1..24].tcpApp[0].idleInterval = exponential(30s)
**.user[1..24].tcpApp[0].thinkTime = 0
**.user[1..24].tcpApp[0].dataTransferMode = "object"

**.user[26..49].numTcpApps = 1
**.user[26..49].tcpApp[0].typename = "TCPBasicClientApp"
**.user[26..49].tcpApp[0].connectAddress = "httpServer"
**.user[26..49].tcpApp[0].connectPort = 80
**.user[26..49].tcpApp[0].replyLength = exponential(150000B)
**.user[26..49].tcpApp[0].idleInterval = exponential(30s)
**.user[26..49].tcpApp[0].thinkTime = 0
**.user[26..49].tcpApp[0].dataTransferMode = "object"

**.user[51..74].numTcpApps = 1
**.user[51..74].tcpApp[0].typename = "TCPBasicClientApp"
**.user[51..74].tcpApp[0].connectAddress = "httpServer"
**.user[51..74].tcpApp[0].connectPort = 80
**.user[51..74].tcpApp[0].replyLength = exponential(150000B)
**.user[51..74].tcpApp[0].idleInterval = exponential(30s)
**.user[51..74].tcpApp[0].thinkTime = 0
**.user[51..74].tcpApp[0].dataTransferMode = "object"

**.user[76..99].numTcpApps = 1
**.user[76..99].tcpApp[0].typename = "TCPBasicClientApp"
**.user[76..99].tcpApp[0].connectAddress = "httpServer"
**.user[76..99].tcpApp[0].connectPort = 80
**.user[76..99].tcpApp[0].replyLength = exponential(150000B)
**.user[76..99].tcpApp[0].idleInterval = exponential(30s)
**.user[76..99].tcpApp[0].thinkTime = 0
**.user[76..99].tcpApp[0].dataTransferMode = "object"

**.user[101..124].numTcpApps = 1
**.user[101..124].tcpApp[0].typename = "TCPBasicClientApp"
**.user[101..124].tcpApp[0].connectAddress = "httpServer"
**.user[101..124].tcpApp[0].connectPort = 80
**.user[101..124].tcpApp[0].replyLength = exponential(150000B)
**.user[101..124].tcpApp[0].idleInterval = exponential(30s)
**.user[101..124].tcpApp[0].thinkTime = 0
**.user[101..124].tcpApp[0].dataTransferMode = "object"

**.user[126..149].numTcpApps = 1
**.user[126..149].tcpApp[0].typename = "TCPBasicClientApp"
**.user[126..149].tcpApp[0].connectAddress = "httpServer"
**.user[126..149].tcpApp[0].connectPort = 80
**.user[126..149].tcpApp[0].replyLength = exponential(150000B)
**.user[126..149].tcpApp[0].idleInterval = exponential(30s)
**.user[126..149].tcpApp[0].thinkTime = 0
**.user[126..149].tcpApp[0].dataTransferMode = "object"

**.user[151..174].numTcpApps = 1
**.user[151..174].tcpApp[0].typename = "TCPBasicClientApp"
**.user[151..174].tcpApp[0].connectAddress = "httpServer"
**.user[151..174].tcpApp[0].connectPort = 80
**.user[151..174].tcpApp[0].replyLength = exponential(150000B)
**.user[151..174].tcpApp[0].idleInterval = exponential(30s)
**.user[151..174].tcpApp[0].thinkTime = 0
**.user[151..174].tcpApp[0].dataTransferMode = "object"

**.user[176..199].numTcpApps = 1
**.user[176..199].tcpApp[0].typename = "TCPBasicClientApp"
**.user[176..199].tcpApp[0].connectAddress = "httpServer"
**.user[176..199].tcpApp[0].connectPort = 80
**.user[176..199].tcpApp[0].replyLength = exponential(150000B)
**.user[176..199].tcpApp[0].idleInterval = exponential(30s)
**.user[176..199].tcpApp[0].thinkTime = 0
**.user[176..199].tcpApp[0].dataTransferMode = "object"

**.user[201..224].numTcpApps = 1
**.user[201..224].tcpApp[0].typename = "TCPBasicClientApp"
**.user[201..224].tcpApp[0].connectAddress = "httpServer"
**.user[201..224].tcpApp[0].connectPort = 80
**.user[201..224].tcpApp[0].replyLength = exponential(150000B)
**.user[201..224].tcpApp[0].idleInterval = exponential(30s)
**.user[201..224].tcpApp[0].thinkTime = 0
**.user[201..224].tcpApp[0].dataTransferMode = "object"

**.user[226..249].numTcpApps = 1
**.user[226..249].tcpApp[0].typename = "TCPBasicClientApp"
**.user[226..249].tcpApp[0].connectAddress = "httpServer"
**.user[226..249].tcpApp[0].connectPort = 80
**.user[226..249].tcpApp[0].replyLength = exponential(150000B)
**.user[226..249].tcpApp[0].idleInterval = exponential(30s)
**.user[226..249].tcpApp[0].thinkTime = 0
**.user[226..249].tcpApp[0].dataTransferMode = "object"

**.user[251..274].numTcpApps = 1
**.user[251..274].tcpApp[0].typename = "TCPBasicClientApp"
**.user[251..274].tcpApp[0].connectAddress = "httpServer"
**.user[251..274].tcpApp[0].connectPort = 80
**.user[251..274].tcpApp[0].replyLength = exponential(150000B)
**.user[251..274].tcpApp[0].idleInterval = exponential(30s)
**.user[251..274].tcpApp[0].thinkTime = 0
**.user[251..274].tcpApp[0].dataTransferMode = "object"

**.user[276..299].numTcpApps = 1
**.user[276..299].tcpApp[0].typename = "TCPBasicClientApp"
**.user[276..299].tcpApp[0].connectAddress = "httpServer"
**.user[276..299].tcpApp[0].connectPort = 80
**.user[276..299].tcpApp[0].replyLength = exponential(150000B)
**.user[276..299].tcpApp[0].idleInterval = exponential(30s)
**.user[276..299].tcpApp[0].thinkTime = 0
**.user[276..299].tcpApp[0].dataTransferMode = "object"

**.user[301..324].numTcpApps = 1
**.user[301..324].tcpApp[0].typename = "TCPBasicClientApp"
**.user[301..324].tcpApp[0].connectAddress = "httpServer"
**.user[301..324].tcpApp[0].connectPort = 80
**.user[301..324].tcpApp[0].replyLength = exponential(150000B)
**.user[301..324].tcpApp[0].idleInterval = exponential(30s)
**.user[301..324].tcpApp[0].thinkTime = 0
**.user[301..324].tcpApp[0].dataTransferMode = "object"

**.user[326..349].numTcpApps = 1
**.user[326..349].tcpApp[0].typename = "TCPBasicClientApp"
**.user[326..349].tcpApp[0].connectAddress = "httpServer"
**.user[326..349].tcpApp[0].connectPort = 80
**.user[326..349].tcpApp[0].replyLength = exponential(150000B)
**.user[326..349].tcpApp[0].idleInterval = exponential(30s)
**.user[326..349].tcpApp[0].thinkTime = 0
**.user[326..349].tcpApp[0].dataTransferMode = "object"

**.user[351..374].numTcpApps = 1
**.user[351..374].tcpApp[0].typename = "TCPBasicClientApp"
**.user[351..374].tcpApp[0].connectAddress = "httpServer"
**.user[351..374].tcpApp[0].connectPort = 80
**.user[351..374].tcpApp[0].replyLength = exponential(150000B)
**.user[351..374].tcpApp[0].idleInterval = exponential(30s)
**.user[351..374].tcpApp[0].thinkTime = 0
**.user[351..374].tcpApp[0].dataTransferMode = "object"

**.user[376..399].numTcpApps = 1
**.user[376..399].tcpApp[0].typename = "TCPBasicClientApp"
**.user[376..399].tcpApp[0].connectAddress = "httpServer"
**.user[376..399].tcpApp[0].connectPort = 80
**.user[376..399].tcpApp[0].replyLength = exponential(150000B)
**.user[376..399].tcpApp[0].idleInterval = exponential(30s)
**.user[376..399].tcpApp[0].thinkTime = 0
**.user[376..399].tcpApp[0].dataTransferMode = "object"

**.user[401..424].numTcpApps = 1
**.user[401..424].tcpApp[0].typename = "TCPBasicClientApp"
**.user[401..424].tcpApp[0].connectAddress = "httpServer"
**.user[401..424].tcpApp[0].connectPort = 80
**.user[401..424].tcpApp[0].replyLength = exponential(150000B)
**.user[401..424].tcpApp[0].idleInterval = exponential(30s)
**.user[401..424].tcpApp[0].thinkTime = 0
**.user[401..424].tcpApp[0].dataTransferMode = "object"

**.user[426..449].numTcpApps = 1
**.user[426..449].tcpApp[0].typename = "TCPBasicClientApp"
**.user[426..449].tcpApp[0].connectAddress = "httpServer"
**.user[426..449].tcpApp[0].connectPort = 80
**.user[426..449].tcpApp[0].replyLength = exponential(150000B)
**.user[426..449].tcpApp[0].idleInterval = exponential(30s)
**.user[426..449].tcpApp[0].thinkTime = 0
**.user[426..449].tcpApp[0].dataTransferMode = "object"

**.user[451..474].numTcpApps = 1
**.user[451..474].tcpApp[0].typename = "TCPBasicClientApp"
**.user[451..474].tcpApp[0].connectAddress = "httpServer"
**.user[451..474].tcpApp[0].connectPort = 80
**.user[451..474].tcpApp[0].replyLength = exponential(150000B)
**.user[451..474].tcpApp[0].idleInterval = exponential(30s)
**.user[451..474].tcpApp[0].thinkTime = 0
**.user[451..474].tcpApp[0].dataTransferMode = "object"

**.user[476..499].numTcpApps = 1
**.user[476..499].tcpApp[0].typename = "TCPBasicClientApp"
**.user[476..499].tcpApp[0].connectAddress = "httpServer"
**.user[476..499].tcpApp[0].connectPort = 80
**.user[476..499].tcpApp[0].replyLength = exponential(150000B)
**.user[476..499].tcpApp[0].idleInterval = exponential(30s)
**.user[476..499].tcpApp[0].thinkTime = 0
**.user[476..499].tcpApp[0].dataTransferMode = "object"

**.user[501..524].numTcpApps = 1
**.user[501..524].tcpApp[0].typename = "TCPBasicClientApp"
**.user[501..524].tcpApp[0].connectAddress = "httpServer"
**.user[501..524].tcpApp[0].connectPort = 80
**.user[501..524].tcpApp[0].replyLength = exponential(150000B)
**.user[501..524].tcpApp[0].idleInterval = exponential(30s)
**.user[501..524].tcpApp[0].thinkTime = 0
**.user[501..524].tcpApp[0].dataTransferMode = "object"

**.user[526..549].numTcpApps = 1
**.user[526..549].tcpApp[0].typename = "TCPBasicClientApp"
**.user[526..549].tcpApp[0].connectAddress = "httpServer"
**.user[526..549].tcpApp[0].connectPort = 80
**.user[526..549].tcpApp[0].replyLength = exponential(150000B)
**.user[526..549].tcpApp[0].idleInterval = exponential(30s)
**.user[526..549].tcpApp[0].thinkTime = 0
**.user[526..549].tcpApp[0].dataTransferMode = "object"

**.user[551..574].numTcpApps = 1
**.user[551..574].tcpApp[0].typename = "TCPBasicClientApp"
**.user[551..574].tcpApp[0].connectAddress = "httpServer"
**.user[551..574].tcpApp[0].connectPort = 80
**.user[551..574].tcpApp[0].replyLength = exponential(150000B)
**.user[551..574].tcpApp[0].idleInterval = exponential(30s)
**.user[551..574].tcpApp[0].thinkTime = 0
**.user[551..574].tcpApp[0].dataTransferMode = "object"

**.user[576..599].numTcpApps = 1
**.user[576..599].tcpApp[0].typename = "TCPBasicClientApp"
**.user[576..599].tcpApp[0].connectAddress = "httpServer"
**.user[576..599].tcpApp[0].connectPort = 80
**.user[576..599].tcpApp[0].replyLength = exponential(150000B)
**.user[576..599].tcpApp[0].idleInterval = exponential(30s)
**.user[576..599].tcpApp[0].thinkTime = 0
**.user[576..599].tcpApp[0].dataTransferMode = "object"

**.user[601..624].numTcpApps = 1
**.user[601..624].tcpApp[0].typename = "TCPBasicClientApp"
**.user[601..624].tcpApp[0].connectAddress = "httpServer"
**.user[601..624].tcpApp[0].connectPort = 80
**.user[601..624].tcpApp[0].replyLength = exponential(150000B)
**.user[601..624].tcpApp[0].idleInterval = exponential(30s)
**.user[601..624].tcpApp[0].thinkTime = 0
**.user[601..624].tcpApp[0].dataTransferMode = "object"


[Config DSL_Best]
**.datarate1 = 2 Mbps

**.user[0..24].numUdpApps = 1
**.user[0..24].udpApp[0].typename = "VoIPApp"  
**.user[0..24].udpApp[0].destAddresses = "user[0] user[1] user[2] user[3] user[4] user[5] user[6] user[7] user[8] user[9] user[10] user[11] user[12] user[13] user[14] user[15] user[16] user[17] user[18] user[19] user[20] user[21] user[22] user[23] user[24]" 
**.user[0..24].udpApp[0].destPort = 5000
**.user[0..24].udpApp[0].localPort = 5000
**.user[0..24].udpApp[0].messageLength = 32B + 40B #Data: 32B, Header: 40B = 20B(IP) + 8B(UDP) + 12B(RTP)
**.user[0..24].udpApp[0].sendInterval = 20ms # 1000ms / 20ms = 50 packets per second.
**.user[0..24].udpApp[0].acceptableDelay = 200ms 

**.user[25..624].numTcpApps = 1 
**.user[25..624].tcpApp[0].typename = "TCPBasicClientApp"  
**.user[25..624].tcpApp[0].connectAddress = "httpServer" 
**.user[25..624].tcpApp[0].connectPort = 80 
**.user[25..624].tcpApp[0].replyLength = exponential(150000B)
**.user[25..624].tcpApp[0].idleInterval = exponential(30s)
**.user[25..624].tcpApp[0].thinkTime = 0
**.user[25..624].tcpApp[0].dataTransferMode = "object"

[Config DSL_Worst]
**.datarate1 = 2 Mbps

**.user[0].numUdpApps = 1
**.user[0].udpApp[0].typename = "VoIPApp"
**.user[0].udpApp[0].destPort = 5000
**.user[0].udpApp[0].localPort = 5000
**.user[0].udpApp[0].messageLength = 32B + 40B
**.user[0].udpApp[0].sendInterval = 20ms
**.user[0].udpApp[0].acceptableDelay = 200ms
**.user[0].udpApp[0].destAddresses = "user[0] user[25] user[50] user[75] user[100] user[125] user[150] user[175] user[200] user[225] user[250] user[275] user[300] user[325] user[350] user[375] user[400] user[425] user[450] user[475] user[500] user[525] user[550] user[575] user[600] "
**.user[25].numUdpApps = 1
**.user[25].udpApp[0].typename = "VoIPApp"
**.user[25].udpApp[0].destPort = 5000
**.user[25].udpApp[0].localPort = 5000
**.user[25].udpApp[0].messageLength = 32B + 40B
**.user[25].udpApp[0].sendInterval = 20ms
**.user[25].udpApp[0].acceptableDelay = 200ms
**.user[25].udpApp[0].destAddresses = "user[0] user[25] user[50] user[75] user[100] user[125] user[150] user[175] user[200] user[225] user[250] user[275] user[300] user[325] user[350] user[375] user[400] user[425] user[450] user[475] user[500] user[525] user[550] user[575] user[600] "
**.user[50].numUdpApps = 1
**.user[50].udpApp[0].typename = "VoIPApp"
**.user[50].udpApp[0].destPort = 5000
**.user[50].udpApp[0].localPort = 5000
**.user[50].udpApp[0].messageLength = 32B + 40B
**.user[50].udpApp[0].sendInterval = 20ms
**.user[50].udpApp[0].acceptableDelay = 200ms
**.user[50].udpApp[0].destAddresses = "user[0] user[25] user[50] user[75] user[100] user[125] user[150] user[175] user[200] user[225] user[250] user[275] user[300] user[325] user[350] user[375] user[400] user[425] user[450] user[475] user[500] user[525] user[550] user[575] user[600] "
**.user[75].numUdpApps = 1
**.user[75].udpApp[0].typename = "VoIPApp"