[General]
network = Ex5Network

**.networkConfiguratorModule = ""

**.ppp[*].numInputHooks = 1
**.ppp[*].inputHook[0].typename = "ThruputMeter"
**.ppp[*].inputHook[0].maxInterval = 1s
**.ppp[*].inputHook[0].batchSize = 10000
**.ppp[*].inputHook[0].**.vector-recording = true

**.vector-recording = false

# Client settings
**.client.numUdpApps = 1
**.client.udpApp[0].typename = "UDPBasicApp"
**.client.udpApp[0].destAddresses = "server"
**.client.udpApp[0].destPort = 1000
**.client.udpApp[0].sendInterval = exponential(0.01s)
**.client.udpApp[0].messageLength = 50 B
# Server settings
**.server.numUdpApps = 1
**.server.udpApp[0].typename = "UDPSink"
**.server.udpApp[0].localPort = 1000

[Config tenseconds]
sim-time-limit = ${simtime=10}s

[Config hundredseconds]
sim-time-limit = ${simtime=100}s

[Config thousandseconds]
sim-time-limit = ${simtime=1000}s

[Config tenruns]
sim-time-limit = ${simtime=10}s
repeat = 10

[Config tenrunshundered]
sim-time-limit = ${simtime=100}s
repeat = 10

[Config tenrunsthousend]
sim-time-limit = ${simtime=1000}s
repeat = 10

[Config thirtyruns]
sim-time-limit = ${simtime=10}s
repeat = 30